#======================================================================

# CRYSTAL DATA

#----------------------------------------------------------------------

data_VESTA_phase_1


_chemical_name_common                  ''
_cell_length_a                         37.07200
_cell_length_b                         37.07200
_cell_length_c                         30.03330
_cell_angle_alpha                      90
_cell_angle_beta                       90
_cell_angle_gamma                      120
_space_group_name_H-M_alt              'P 3'
_space_group_IT_number                 143

loop_
_space_group_symop_operation_xyz
   'x, y, z'
   '-y, x-y, z'
   '-x+y, -x, z'

loop_
   _atom_site_label
   _atom_site_occupancy
   _atom_site_fract_x
   _atom_site_fract_y
   _atom_site_fract_z
   _atom_site_adp_type
   _atom_site_B_iso_or_equiv
   _atom_site_type_symbol
   Zn1        1.0     0.156000      0.296000      0.198300     Biso  1.000000 Zn
   Zn1        1.0     0.224600      0.366300      0.260200     Biso  1.000000 Zn
   O2         1.0     0.371600      0.238800      0.821400     Biso  1.000000 O
   O2         1.0     0.318500      0.179600      0.851100     Biso  1.000000 O
   O2         1.0     0.585400      0.332300      0.227000     Biso  1.000000 O
   O2         1.0     0.615100      0.326700      0.165300     Biso  1.000000 O
   O2         1.0     0.260300      0.352700      0.224300     Biso  1.000000 O
   O2         1.0     0.211400      0.304700      0.181500     Biso  1.000000 O
   O2         1.0     0.118600      0.239600      0.212100     Biso  1.000000 O
   O2         1.0     0.242900      0.424500      0.246400     Biso  1.000000 O
   C6         1.0     0.388400      0.280000      0.033500     Biso  1.000000 C
   C7         1.0     0.424900      0.288100      0.053600     Biso  1.000000 C
   C6         1.0     0.434900      0.302000      0.098000     Biso  1.000000 C
   C7         1.0     0.406800      0.309200      0.120600     Biso  1.000000 C
   C6         1.0     0.369900      0.301200      0.101800     Biso  1.000000 C
   C7         1.0     0.360700      0.285700      0.058900     Biso  1.000000 C
   C5         1.0     0.473400      0.308200      0.118500     Biso  1.000000 C
   C4         1.0     0.491900      0.287400      0.107000     Biso  1.000000 C
   C3         1.0     0.527600      0.295200      0.128000     Biso  1.000000 C
   C2         1.0     0.544200      0.319700      0.160800     Biso  1.000000 C
   C3         1.0     0.527200      0.342200      0.170300     Biso  1.000000 C
   C4         1.0     0.491700      0.335200      0.149300     Biso  1.000000 C
   C5         1.0     0.340000      0.309200      0.124200     Biso  1.000000 C
   C4         1.0     0.347700      0.335200      0.156500     Biso  1.000000 C
   C3         1.0     0.318300      0.341600      0.179900     Biso  1.000000 C
   C2         1.0     0.282200      0.322500      0.170500     Biso  1.000000 C
   C3         1.0     0.271300      0.298500      0.136500     Biso  1.000000 C
   C4         1.0     0.300100      0.292100      0.113700     Biso  1.000000 C
   C5         1.0     0.380600      0.265900      0.985800     Biso  1.000000 C
   C4         1.0     0.340400      0.235200      0.974500     Biso  1.000000 C
   C3         1.0     0.398500      0.263800      0.911200     Biso  1.000000 C
   C2         1.0     0.359900      0.232100      0.900400     Biso  1.000000 C
   C4         1.0     0.407300      0.275400      0.953100     Biso  1.000000 C
   C1         1.0     0.350400      0.216800      0.854000     Biso  1.000000 C
   C1         1.0     0.584400      0.324700      0.182600     Biso  1.000000 C
   C1         1.0     0.253100      0.328500      0.192800     Biso  1.000000 C
   C4         1.0     0.041000      0.112800      0.285800     Biso  1.000000 C
   C3         1.0     0.063400      0.157100      0.285800     Biso  1.000000 C
   C4         1.0     0.306600      0.554000      0.235400     Biso  1.000000 C
   C3         1.0     0.285000      0.512400      0.235600     Biso  1.000000 C
   C3         1.0     0.332400      0.220400      0.929100     Biso  1.000000 C
   Zn1        1.0     0.621900      0.340700      0.277900     Biso  1.000000 Zn
   Zn1        1.0     0.140000      0.296000      0.301700     Biso  1.000000 Zn
   Zn1        1.0     0.141700      0.366300      0.239800     Biso  1.000000 Zn
   O2         1.0     0.371600      0.132800      0.678600     Biso  1.000000 O
   O2         1.0     0.318500      0.138900      0.648900     Biso  1.000000 O
   O2         1.0     0.604700      0.238500      0.300700     Biso  1.000000 O
   O2         1.0     0.582200      0.294000      0.310200     Biso  1.000000 O
   O2         1.0     0.092400      0.352700      0.275700     Biso  1.000000 O
   O2         1.0     0.093300      0.304700      0.318500     Biso  1.000000 O
   O2         1.0     0.121000      0.239600      0.287900     Biso  1.000000 O
   O2         1.0     0.181600      0.424500      0.253600     Biso  1.000000 O
   C6         1.0     0.388400      0.108400      0.466500     Biso  1.000000 C
   C7         1.0     0.424900      0.136800      0.446400     Biso  1.000000 C
   C6         1.0     0.434900      0.132900      0.402000     Biso  1.000000 C
   C7         1.0     0.406800      0.097600      0.379400     Biso  1.000000 C
   C6         1.0     0.369900      0.068700      0.398200     Biso  1.000000 C
   C7         1.0     0.360700      0.075000      0.441100     Biso  1.000000 C
   C5         1.0     0.473400      0.165200      0.381500     Biso  1.000000 C
   C4         1.0     0.491900      0.204500      0.393000     Biso  1.000000 C
   C3         1.0     0.527600      0.232400      0.372000     Biso  1.000000 C
   C2         1.0     0.544200      0.224500      0.339200     Biso  1.000000 C
   C3         1.0     0.527200      0.185000      0.329700     Biso  1.000000 C
   C4         1.0     0.491700      0.156500      0.350700     Biso  1.000000 C
   C5         1.0     0.340000      0.030800      0.375800     Biso  1.000000 C
   C4         1.0     0.347700      0.012500      0.343500     Biso  1.000000 C
   C3         1.0     0.023300      0.341600      0.320100     Biso  1.000000 C
   C2         1.0     0.040300      0.322500      0.329500     Biso  1.000000 C
   C3         1.0     0.027200      0.298500      0.363500     Biso  1.000000 C
   C4         1.0     0.300100      0.008000      0.386300     Biso  1.000000 C
   C5         1.0     0.380600      0.114700      0.514200     Biso  1.000000 C
   C4         1.0     0.340400      0.105200      0.525500     Biso  1.000000 C
   C3         1.0     0.398500      0.134700      0.588800     Biso  1.000000 C
   C2         1.0     0.359900      0.127800      0.599600     Biso  1.000000 C
   C4         1.0     0.407300      0.131900      0.546900     Biso  1.000000 C
   C1         1.0     0.350400      0.133600      0.646000     Biso  1.000000 C
   C1         1.0     0.584400      0.259700      0.317400     Biso  1.000000 C
   C1         1.0     0.075400      0.328500      0.307200     Biso  1.000000 C
   C4         1.0     0.071800      0.112800      0.214200     Biso  1.000000 C
   C3         1.0     0.093700      0.157100      0.214200     Biso  1.000000 C
   C4         1.0     0.247400      0.554000      0.264600     Biso  1.000000 C
   C3         1.0     0.227400      0.512400      0.264400     Biso  1.000000 C
   C3         1.0     0.332400      0.112000      0.570900     Biso  1.000000 C
   Zn1        1.0     0.340700      0.621900      0.777900     Biso  1.000000 Zn
   Zn1        1.0     0.296000      0.140000      0.801700     Biso  1.000000 Zn
   Zn1        1.0     0.366300      0.141700      0.739800     Biso  1.000000 Zn
   O2         1.0     0.132800      0.371600      0.178600     Biso  1.000000 O
   O2         1.0     0.138900      0.318500      0.148900     Biso  1.000000 O
   O2         1.0     0.238500      0.604700      0.800700     Biso  1.000000 O
   O2         1.0     0.294000      0.582200      0.810200     Biso  1.000000 O
   O2         1.0     0.352700      0.092400      0.775700     Biso  1.000000 O
   O2         1.0     0.304700      0.093300      0.818500     Biso  1.000000 O
   O2         1.0     0.239600      0.121000      0.787900     Biso  1.000000 O
   O2         1.0     0.424500      0.181600      0.753600     Biso  1.000000 O
   C6         1.0     0.108400      0.388400      0.966500     Biso  1.000000 C
   C7         1.0     0.136800      0.424900      0.946400     Biso  1.000000 C
   C6         1.0     0.132900      0.434900      0.902000     Biso  1.000000 C
   C7         1.0     0.097600      0.406800      0.879400     Biso  1.000000 C
   C6         1.0     0.068700      0.369900      0.898200     Biso  1.000000 C
   C7         1.0     0.075000      0.360700      0.941100     Biso  1.000000 C
   C5         1.0     0.165200      0.473400      0.881500     Biso  1.000000 C
   C4         1.0     0.204500      0.491900      0.893000     Biso  1.000000 C
   C3         1.0     0.232400      0.527600      0.872000     Biso  1.000000 C
   C2         1.0     0.224500      0.544200      0.839200     Biso  1.000000 C
   C3         1.0     0.185000      0.527200      0.829700     Biso  1.000000 C
   C4         1.0     0.156500      0.491700      0.850700     Biso  1.000000 C
   C5         1.0     0.030800      0.340000      0.875800     Biso  1.000000 C
   C4         1.0     0.012500      0.347700      0.843500     Biso  1.000000 C
   C3         1.0     0.341600      0.023300      0.820100     Biso  1.000000 C
   C2         1.0     0.322500      0.040300      0.829500     Biso  1.000000 C
   C3         1.0     0.298500      0.027200      0.863500     Biso  1.000000 C
   C4         1.0     0.008000      0.300100      0.886300     Biso  1.000000 C
   C5         1.0     0.114700      0.380600      0.014200     Biso  1.000000 C
   C4         1.0     0.105200      0.340400      0.025500     Biso  1.000000 C
   C3         1.0     0.134700      0.398500      0.088800     Biso  1.000000 C
   C2         1.0     0.127800      0.359900      0.099600     Biso  1.000000 C
   C4         1.0     0.131900      0.407300      0.046900     Biso  1.000000 C
   C1         1.0     0.133600      0.350400      0.146000     Biso  1.000000 C
   C1         1.0     0.259700      0.584400      0.817400     Biso  1.000000 C
   C1         1.0     0.328500      0.075400      0.807200     Biso  1.000000 C
   C4         1.0     0.112800      0.071800      0.714200     Biso  1.000000 C
   C3         1.0     0.157100      0.093700      0.714200     Biso  1.000000 C
   C4         1.0     0.554000      0.247400      0.764600     Biso  1.000000 C
   C3         1.0     0.512400      0.227400      0.764400     Biso  1.000000 C
   C3         1.0     0.112000      0.332400      0.070900     Biso  1.000000 C
   Zn1        1.0     0.296000      0.156000      0.698300     Biso  1.000000 Zn
   Zn1        1.0     0.366300      0.224600      0.760200     Biso  1.000000 Zn
   O2         1.0     0.238800      0.371600      0.321400     Biso  1.000000 O
   O2         1.0     0.179600      0.318500      0.351100     Biso  1.000000 O
   O2         1.0     0.332300      0.585400      0.727000     Biso  1.000000 O
   O2         1.0     0.326700      0.615100      0.665300     Biso  1.000000 O
   O2         1.0     0.352700      0.260300      0.724300     Biso  1.000000 O
   O2         1.0     0.304700      0.211400      0.681500     Biso  1.000000 O
   O2         1.0     0.239600      0.118600      0.712100     Biso  1.000000 O
   O2         1.0     0.424500      0.242900      0.746400     Biso  1.000000 O
   C6         1.0     0.280000      0.388400      0.533500     Biso  1.000000 C
   C7         1.0     0.288100      0.424900      0.553600     Biso  1.000000 C
   C6         1.0     0.302000      0.434900      0.598000     Biso  1.000000 C
   C7         1.0     0.309200      0.406800      0.620600     Biso  1.000000 C
   C6         1.0     0.301200      0.369900      0.601800     Biso  1.000000 C
   C7         1.0     0.285700      0.360700      0.558900     Biso  1.000000 C
   C5         1.0     0.308200      0.473400      0.618500     Biso  1.000000 C
   C4         1.0     0.287400      0.491900      0.607000     Biso  1.000000 C
   C3         1.0     0.295200      0.527600      0.628000     Biso  1.000000 C
   C2         1.0     0.319700      0.544200      0.660800     Biso  1.000000 C
   C3         1.0     0.342200      0.527200      0.670300     Biso  1.000000 C
   C4         1.0     0.335200      0.491700      0.649300     Biso  1.000000 C
   C5         1.0     0.309200      0.340000      0.624200     Biso  1.000000 C
   C4         1.0     0.335200      0.347700      0.656500     Biso  1.000000 C
   C3         1.0     0.341600      0.318300      0.679900     Biso  1.000000 C
   C2         1.0     0.322500      0.282200      0.670500     Biso  1.000000 C
   C3         1.0     0.298500      0.271300      0.636500     Biso  1.000000 C
   C4         1.0     0.292100      0.300100      0.613700     Biso  1.000000 C
   C5         1.0     0.265900      0.380600      0.485800     Biso  1.000000 C
   C4         1.0     0.235200      0.340400      0.474500     Biso  1.000000 C
   C3         1.0     0.263800      0.398500      0.411200     Biso  1.000000 C
   C2         1.0     0.232100      0.359900      0.400400     Biso  1.000000 C
   C4         1.0     0.275400      0.407300      0.453100     Biso  1.000000 C
   C1         1.0     0.216800      0.350400      0.354000     Biso  1.000000 C
   C1         1.0     0.324700      0.584400      0.682600     Biso  1.000000 C
   C1         1.0     0.328500      0.253100      0.692800     Biso  1.000000 C
   C4         1.0     0.112800      0.041000      0.785800     Biso  1.000000 C
   C3         1.0     0.157100      0.063400      0.785800     Biso  1.000000 C
   C4         1.0     0.554000      0.306600      0.735400     Biso  1.000000 C
   C3         1.0     0.512400      0.285000      0.735600     Biso  1.000000 C
   C3         1.0     0.220400      0.332400      0.429100     Biso  1.000000 C
   Zn1        1.0     0.666667      0.333333      0.190400     Biso  1.000000 Zn
   Zn1        1.0     0.333333      0.666667      0.690400     Biso  1.000000 Zn
   O1         1.0     0.166667      0.332900      0.250000     Biso  1.000000 O
   C6         1.0     0.021650      0.043300      0.250000     Biso  1.000000 C
   C5         1.0     0.045350      0.090700      0.250000     Biso  1.000000 C
   C2         1.0     0.088800      0.177600      0.250000     Biso  1.000000 C
   C1         1.0     0.110450      0.220900      0.250000     Biso  1.000000 C
   C6         1.0     0.311950      0.623900      0.250000     Biso  1.000000 C
   C5         1.0     0.287800      0.575600      0.250000     Biso  1.000000 C
   C2         1.0     0.245050      0.490100      0.250000     Biso  1.000000 C
   C1         1.0     0.221550      0.443100      0.250000     Biso  1.000000 C
   O1         1.0     0.332900      0.166667      0.750000     Biso  1.000000 O
   C6         1.0     0.043300      0.021650      0.750000     Biso  1.000000 C
   C5         1.0     0.090700      0.045350      0.750000     Biso  1.000000 C
   C2         1.0     0.177600      0.088800      0.750000     Biso  1.000000 C
   C1         1.0     0.220900      0.110450      0.750000     Biso  1.000000 C
   C6         1.0     0.623900      0.311950      0.750000     Biso  1.000000 C
   C5         1.0     0.575600      0.287800      0.750000     Biso  1.000000 C
   C2         1.0     0.490100      0.245050      0.750000     Biso  1.000000 C
   C1         1.0     0.443100      0.221550      0.750000     Biso  1.000000 C
   O1         1.0     0.666667      0.333333      0.250000     Biso  1.000000 O
   O1         1.0     0.333333      0.666667      0.750000     Biso  1.000000 O
   C7         1.0     0.042800      0.021400      0.250000     Biso  1.000000 C
   C7         1.0     0.021400      0.042800      0.750000     Biso  1.000000 C
   C7         1.0     0.289600      0.644800      0.250000     Biso  1.000000 C
   C7         1.0     0.355200      0.644800      0.250000     Biso  1.000000 C
   C7         1.0     0.644800      0.289600      0.750000     Biso  1.000000 C
   C7         1.0     0.644800      0.355200      0.750000     Biso  1.000000 C
   H3         1.0     0.448880      0.283660      0.034300     Biso  1.000000 H
   H3         1.0     0.414010      0.322160      0.155930     Biso  1.000000 H
   H3         1.0     0.329010      0.277550      0.044660     Biso  1.000000 H
   H2         1.0     0.478080      0.262940      0.079550     Biso  1.000000 H
   H1         1.0     0.545290      0.279100      0.116380     Biso  1.000000 H
   H1         1.0     0.542050      0.367940      0.196340     Biso  1.000000 H
   H2         1.0     0.478330      0.355410      0.160900     Biso  1.000000 H
   H2         1.0     0.381030      0.355800      0.168640     Biso  1.000000 H
   H1         1.0     0.328950      0.365260      0.208170     Biso  1.000000 H
   H1         1.0     0.237560      0.282110      0.124670     Biso  1.000000 H
   H2         1.0     0.287160      0.270260      0.083880     Biso  1.000000 H
   H2         1.0     0.314800      0.222390      0.000800     Biso  1.000000 H
   H1         1.0     0.422890      0.280070      0.884080     Biso  1.000000 H
   H2         1.0     0.442100      0.295700      0.959710     Biso  1.000000 H
   H2         1.0     0.019510      0.095170      0.314800     Biso  1.000000 H
   H1         1.0     0.060170      0.174950      0.314980     Biso  1.000000 H
   H2         1.0     0.340240      0.571540      0.223290     Biso  1.000000 H
   H1         1.0     0.300090      0.493970      0.223260     Biso  1.000000 H
   H1         1.0     0.299390      0.196750      0.918240     Biso  1.000000 H
   H3         1.0     0.448880      0.165220      0.465700     Biso  1.000000 H
   H3         1.0     0.414010      0.091850      0.344070     Biso  1.000000 H
   H3         1.0     0.329010      0.051460      0.455340     Biso  1.000000 H
   H2         1.0     0.478080      0.215140      0.420450     Biso  1.000000 H
   H1         1.0     0.545290      0.266190      0.383620     Biso  1.000000 H
   H1         1.0     0.542050      0.174110      0.303660     Biso  1.000000 H
   H2         1.0     0.478330      0.122920      0.339100     Biso  1.000000 H
   H2         1.0     0.381030      0.025230      0.331360     Biso  1.000000 H
   H1         1.0     0.036310      0.365260      0.291830     Biso  1.000000 H
   H1         1.0     0.044550      0.282110      0.375330     Biso  1.000000 H
   H2         1.0     0.287160      0.016900      0.416120     Biso  1.000000 H
   H2         1.0     0.314800      0.092410      0.499200     Biso  1.000000 H
   H1         1.0     0.422890      0.142820      0.615920     Biso  1.000000 H
   H2         1.0     0.442100      0.146400      0.540290     Biso  1.000000 H
   H2         1.0     0.075660      0.095170      0.185200     Biso  1.000000 H
   H1         1.0     0.114780      0.174950      0.185020     Biso  1.000000 H
   H2         1.0     0.231300      0.571540      0.276710     Biso  1.000000 H
   H1         1.0     0.193880      0.493970      0.276740     Biso  1.000000 H
   H1         1.0     0.299390      0.102640      0.581760     Biso  1.000000 H
   H3         1.0     0.165220      0.448880      0.965700     Biso  1.000000 H
   H3         1.0     0.091850      0.414010      0.844070     Biso  1.000000 H
   H3         1.0     0.051460      0.329010      0.955340     Biso  1.000000 H
   H2         1.0     0.215140      0.478080      0.920450     Biso  1.000000 H
   H1         1.0     0.266190      0.545290      0.883620     Biso  1.000000 H
   H1         1.0     0.174110      0.542050      0.803660     Biso  1.000000 H
   H2         1.0     0.122920      0.478330      0.839100     Biso  1.000000 H
   H2         1.0     0.025230      0.381030      0.831360     Biso  1.000000 H
   H1         1.0     0.365260      0.036310      0.791830     Biso  1.000000 H
   H1         1.0     0.282110      0.044550      0.875330     Biso  1.000000 H
   H2         1.0     0.016900      0.287160      0.916120     Biso  1.000000 H
   H2         1.0     0.092410      0.314800      0.999200     Biso  1.000000 H
   H1         1.0     0.142820      0.422890      0.115920     Biso  1.000000 H
   H2         1.0     0.146400      0.442100      0.040290     Biso  1.000000 H
   H2         1.0     0.095170      0.075660      0.685200     Biso  1.000000 H
   H1         1.0     0.174950      0.114780      0.685020     Biso  1.000000 H
   H2         1.0     0.571540      0.231300      0.776710     Biso  1.000000 H
   H1         1.0     0.493970      0.193880      0.776740     Biso  1.000000 H
   H1         1.0     0.102640      0.299390      0.081760     Biso  1.000000 H
   H3         1.0     0.283660      0.448880      0.534300     Biso  1.000000 H
   H3         1.0     0.322160      0.414010      0.655930     Biso  1.000000 H
   H3         1.0     0.277550      0.329010      0.544660     Biso  1.000000 H
   H2         1.0     0.262940      0.478080      0.579550     Biso  1.000000 H
   H1         1.0     0.279100      0.545290      0.616380     Biso  1.000000 H
   H1         1.0     0.367940      0.542050      0.696340     Biso  1.000000 H
   H2         1.0     0.355410      0.478330      0.660900     Biso  1.000000 H
   H2         1.0     0.355800      0.381030      0.668640     Biso  1.000000 H
   H1         1.0     0.365260      0.328950      0.708170     Biso  1.000000 H
   H1         1.0     0.282110      0.237560      0.624670     Biso  1.000000 H
   H2         1.0     0.270260      0.287160      0.583880     Biso  1.000000 H
   H2         1.0     0.222390      0.314800      0.500800     Biso  1.000000 H
   H1         1.0     0.280070      0.422890      0.384080     Biso  1.000000 H
   H2         1.0     0.295700      0.442100      0.459710     Biso  1.000000 H
   H2         1.0     0.095170      0.019510      0.814800     Biso  1.000000 H
   H1         1.0     0.174950      0.060170      0.814980     Biso  1.000000 H
   H2         1.0     0.571540      0.340240      0.723290     Biso  1.000000 H
   H1         1.0     0.493970      0.300090      0.723260     Biso  1.000000 H
   H1         1.0     0.196750      0.299390      0.418240     Biso  1.000000 H
   H3         1.0     0.078310      0.038840      0.250000     Biso  1.000000 H
   H3         1.0     0.039470      0.078310      0.750000     Biso  1.000000 H
   H3         1.0     0.254100      0.626450      0.250000     Biso  1.000000 H
   H3         1.0     0.626450      0.372350      0.750000     Biso  1.000000 H
